CM EXAMPLE 1.  CENTER FED LINEAR ANTENNA
CE
GW  0    1    0.0000    0.0000   -0.2500    0.0000    0.0000   -0.1786    0.0010
GW  0    1    0.0000    0.0000   -0.1786    0.0000    0.0000   -0.1071    0.0010
GW  0    1    0.0000    0.0000   -0.1071    0.0000    0.0000   -0.0357    0.0010
GW  1    1    0.0000    0.0000   -0.0357    0.0000    0.0000    0.0357    0.0010
GW  0    1    0.0000    0.0000    0.0357    0.0000    0.0000    0.1071    0.0010
GW  0    1    0.0000    0.0000    0.1071    0.0000    0.0000    0.1786    0.0010
GW  0    1    0.0000    0.0000    0.1786    0.0000    0.0000    0.2500    0.0010
GE
EX  0    1    1    0    1.0000    0.0000                                        
XQ
LD  0    1    1    1 1.000E+01 3.000E-09 5.300E-11                              
PQ
NE  0    1    1    1    0.0000    0.0000    0.1786    0.0000    0.0000    0.0000
NE  0    1    1    1    0.0000    0.0000    0.2500    0.0000    0.0000    0.0000
NE  0    1    1    1    0.0010    0.0000    0.0000    0.0000    0.0000    0.0000
NE  0    1    1    1    0.0010    0.0000    0.0179    0.0000    0.0000    0.0000
NE  0    1    1    1    0.0010    0.0000    0.0357    0.0000    0.0000    0.0000
NE  0    1    1    1    0.0010    0.0000    0.0536    0.0000    0.0000    0.0000
NE  0    1    1    1    0.0010    0.0000    0.0714    0.0000    0.0000    0.0000
NE  0    1    1    1    0.0010    0.0000    0.0893    0.0000    0.0000    0.0000
NE  0    1    1    1    0.0010    0.0000    0.1071    0.0000    0.0000    0.0000
NE  0    1    1    1    0.0010    0.0000    0.1250    0.0000    0.0000    0.0000
NE  0    1    1    1    0.0010    0.0000    0.1429    0.0000    0.0000    0.0000
NE  0    1    1    1    0.0010    0.0000    0.1607    0.0000    0.0000    0.0000
NE  0    1    1    1    0.0010    0.0000    0.1786    0.0000    0.0000    0.0000
NE  0    1    1    1    0.0010    0.0000    0.1964    0.0000    0.0000    0.0000
NE  0    1    1    1    0.0010    0.0000    0.2143    0.0000    0.0000    0.0000
EN
