CM EXAMPLE 1.  CENTER FED LINEAR ANTENNA
CE
GW  0    0    0.0000    0.0000   -0.2500    0.0000    0.0000   -0.2500    0.0010
GW  0    0    0.0000    0.0000   -0.1786    0.0000    0.0000   -0.1786    0.0010
GW  0    0    0.0000    0.0000   -0.1071    0.0000    0.0000   -0.1071    0.0010
GW  0    0    0.0000    0.0000   -0.0357    0.0000    0.0000   -0.0357    0.0010
GW  0    0    0.0000    0.0000    0.0357    0.0000    0.0000    0.0357    0.0010
GW  0    0    0.0000    0.0000    0.1071    0.0000    0.0000    0.1071    0.0010
GW  0    0    0.0000    0.0000    0.1786    0.0000    0.0000    0.1786    0.0010
