CM EXAMPLE 1.  CENTER FED LINEAR ANTENNA
CE
GW  0    1    0.0000    0.0000   -0.2500    0.0000    0.0000   -0.1786    0.0010
GW  0    1    0.0000    0.0000   -0.1786    0.0000    0.0000   -0.1071    0.0010
GW  0    1    0.0000    0.0000   -0.1071    0.0000    0.0000   -0.0357    0.0010
GW  1    1    0.0000    0.0000   -0.0357    0.0000    0.0000    0.0357    0.0010
GW  0    1    0.0000    0.0000    0.0357    0.0000    0.0000    0.1071    0.0010
GW  0    1    0.0000    0.0000    0.1071    0.0000    0.0000    0.1786    0.0010
GW  0    1    0.0000    0.0000    0.1786    0.0000    0.0000    0.2500    0.0010
GE
EX  0    1    1    0    1.0000    0.0000
XQ
LD  0    1    1    1   10.     3.000E-09 5.300E-11
PQ
NE  0    1    1   15   .001      0         0          0.        0.      .01786
EN
